[TITLE]


[JUNCTIONS]
;ID              	Elev        	Demand      	Pattern         
 J1              	0           	0           	                	;
 J2              	0           	0           	                	;
 J3              	0           	300000      	1               	;
 J4              	0           	300000      	2               	;
 J5              	0           	300000      	3               	;
 J6              	0           	0           	                	;
 J7              	0           	0           	                	;
 J8              	0           	300000      	4               	;
 J9              	0           	300000      	5               	;
 J10             	0           	300000      	6               	;
 J11             	0           	0           	                	;
 J12             	0           	0           	                	;
 J15             	0           	300000      	7               	;
 J16             	0           	300000      	8               	;
 J17             	0           	300000      	9               	;
 J18             	0           	300000      	10              	;
 J29             	0           	0           	                	;

[RESERVOIRS]
;ID              	Head        	Pattern         
 R1              	0           	                	;

[TANKS]
;ID              	Elevation   	InitLevel   	MinLevel    	MaxLevel    	Diameter    	MinVol      	VolCurve
 T1              	30          	25          	1           	30          	5           	0           	                	;
 T2              	60          	14          	1           	16          	5           	0           	                	;
 T3              	0           	14          	1           	16          	5           	0           	                	;

[PIPES]
;ID              	Node1           	Node2           	Length      	Diameter    	Roughness   	MinorLoss   	Status
 Pi1             	R1              	J2              	1000        	300         	100         	0           	Open  	;
 Pi4             	J3              	J4              	1000        	300         	100         	0           	Open  	;
 Pi5             	J4              	J5              	1000        	300         	100         	0           	Open  	;
 Pi6             	J1              	T1              	1000        	300         	100         	0           	Open  	;
 Pi7             	T1              	J6              	1000        	300         	100         	0           	Open  	;
 Pi8             	J7              	T2              	1000        	300         	100         	0           	Open  	;
 Pi9             	T2              	J8              	1000        	300         	100         	0           	Open  	;
 Pi10            	J8              	J9              	1000        	300         	100         	0           	Open  	;
 Pi11            	J9              	J10             	1000        	300         	100         	0           	Open  	;
 Pi12            	J11             	T3              	1000        	800         	100         	0           	Open  	;
 Pi13            	T2              	J12             	1000        	800         	100         	0           	Open  	;
 Pi16            	T3              	J15             	1000        	300         	100         	0           	Open  	;
 Pi17            	J15             	J16             	1000        	300         	100         	0           	Open  	;
 Pi18            	J16             	J17             	1000        	300         	100         	0           	Open  	;
 Pi19            	J17             	J18             	1000        	300         	100         	0           	Open  	;
 Pi30            	T1              	J29             	1000        	300         	100         	0           	Open  	;

[PUMPS]
;ID              	Node1           	Node2           	Parameters
 P1              	J2              	J1              	HEAD C1	;
 P2              	J2              	J1              	HEAD C1	;
 P3              	J2              	J1              	HEAD C1	;
 P4              	J6              	J7              	HEAD C2	;
 P5              	J6              	J7              	HEAD C2	;

[VALVES]
;ID              	Node1           	Node2           	Diameter    	Type	Setting     	MinorLoss   
 V1              	J12             	J11             	100         	FCV 	1000        	0           	;
 V2              	J29             	J3              	15          	PRV 	20          	0           	;

[TAGS]

[DEMANDS]
;Junction        	Demand      	Pattern         	Category

[STATUS]
;ID              	Status/Setting

[PATTERNS]
;ID              	Multipliers
;
 1               	0.0001579   	0.0001579   	0.0001579   	0.0001579   	0.0001579   	0.0001579   
 1               	0.0009513   	0.0009513   	0.0004756   	0.0003139   	0.0003139   	0.0003139   
 1               	0.0003139   	0.0003139   	0.0003139   	0.0003139   	0.0003139   	0.0003139   
 1               	0.0009513   	0.0009513   	0.0004756   	0.0003139   	0.0003139   	0.0003139   
 1               	0.000158    	0.000158    	0.000158    	0.000158    	0.000158    	0.000158    
 1               	0.000952    	0.000952    	0.000476    	0.0003142   	0.0003142   	0.0003142   
 1               	0.0003142   	0.0003142   	0.0003142   	0.0003142   	0.0003142   	0.0003142   
 1               	0.000952    	0.000952    	0.000476    	0.0003142   	0.0003142   	0.0003142   
 1               	0.0001581   	0.0001581   	0.0001581   	0.0001581   	0.0001581   	0.0001581   
 1               	0.0009523   	0.0009523   	0.0004762   	0.0003143   	0.0003143   	0.0003143   
 1               	0.0003143   	0.0003143   	0.0003143   	0.0003143   	0.0003143   	0.0003143   
 1               	0.0009523   	0.0009523   	0.0004762   	0.0003143   	0.0003143   	0.0003143   
 1               	0.0001572   	0.0001572   	0.0001572   	0.0001572   	0.0001572   	0.0001572   
 1               	0.000947    	0.000947    	0.0004735   	0.0003125   	0.0003125   	0.0003125   
 1               	0.0003125   	0.0003125   	0.0003125   	0.0003125   	0.0003125   	0.0003125   
 1               	0.000947    	0.000947    	0.0004735   	0.0003125   	0.0003125   	0.0003125   
 1               	0.0001581   	0.0001581   	0.0001581   	0.0001581   	0.0001581   	0.0001581   
 1               	0.0009522   	0.0009522   	0.0004761   	0.0003142   	0.0003142   	0.0003142   
 1               	0.0003142   	0.0003142   	0.0003142   	0.0003142   	0.0003142   	0.0003142   
 1               	0.0009522   	0.0009522   	0.0004761   	0.0003142   	0.0003142   	0.0003142   
 1               	0.0001591   	0.0001591   	0.0001591   	0.0001591   	0.0001591   	0.0001591   
 1               	0.0009584   	0.0009584   	0.0004792   	0.0003163   	0.0003163   	0.0003163   
 1               	0.0003163   	0.0003163   	0.0003163   	0.0003163   	0.0003163   	0.0003163   
 1               	0.0009584   	0.0009584   	0.0004792   	0.0003163   	0.0003163   	0.0003163   
 1               	0.0001589   	0.0001589   	0.0001589   	0.0001589   	0.0001589   	0.0001589   
 1               	0.0009573   	0.0009573   	0.0004786   	0.0003159   	0.0003159   	0.0003159   
 1               	0.0003159   	0.0003159   	0.0003159   	0.0003159   	0.0003159   	0.0003159   
 1               	0.0009573   	0.0009573   	0.0004786   	0.0003159   	0.0003159   	0.0003159   
 1               	0.0001725   	0.0001725   	0.0001725   	0.0001725   	0.0001725   	0.0001725   
 1               	0.001039    	0.001039    	0.0005195   	0.0003429   	0.0003429   	0.0003429   
 1               	0.0003429   	0.0003429   	0.0003429   	0.0003429   	0.0003429   	0.0003429   
 1               	0.001039    	0.001039    	0.0005195   	0.0003429   	0.0003429   	0.0003429   
 1               	0.0001727   	0.0001727   	0.0001727   	0.0001727   	0.0001727   	0.0001727   
 1               	0.0010404   	0.0010404   	0.0005202   	0.0003433   	0.0003433   	0.0003433   
 1               	0.0003433   	0.0003433   	0.0003433   	0.0003433   	0.0003433   	0.0003433   
 1               	0.0010404   	0.0010404   	0.0005202   	0.0003433   	0.0003433   	0.0003433   
 1               	0.0001724   	0.0001724   	0.0001724   	0.0001724   	0.0001724   	0.0001724   
 1               	0.0010385   	0.0010385   	0.0005193   	0.0003427   	0.0003427   	0.0003427   
 1               	0.0003427   	0.0003427   	0.0003427   	0.0003427   	0.0003427   	0.0003427   
 1               	0.0010385   	0.0010385   	0.0005193   	0.0003427   	0.0003427   	0.0003427   
 1               	0.000173    	0.000173    	0.000173    	0.000173    	0.000173    	0.000173    
 1               	0.0010422   	0.0010422   	0.0005211   	0.0003439   	0.0003439   	0.0003439   
 1               	0.0003439   	0.0003439   	0.0003439   	0.0003439   	0.0003439   	0.0003439   
 1               	0.0010422   	0.0010422   	0.0005211   	0.0003439   	0.0003439   	0.0003439   
 1               	0.0001722   	0.0001722   	0.0001722   	0.0001722   	0.0001722   	0.0001722   
 1               	0.0010374   	0.0010374   	0.0005187   	0.0003423   	0.0003423   	0.0003423   
 1               	0.0003423   	0.0003423   	0.0003423   	0.0003423   	0.0003423   	0.0003423   
 1               	0.0010374   	0.0010374   	0.0005187   	0.0003423   	0.0003423   	0.0003423   
 1               	0.0001726   	0.0001726   	0.0001726   	0.0001726   	0.0001726   	0.0001726   
 1               	0.0010401   	0.0010401   	0.00052     	0.0003432   	0.0003432   	0.0003432   
 1               	0.0003432   	0.0003432   	0.0003432   	0.0003432   	0.0003432   	0.0003432   
 1               	0.0010401   	0.0010401   	0.00052     	0.0003432   	0.0003432   	0.0003432   
 1               	0.0001725   	0.0001725   	0.0001725   	0.0001725   	0.0001725   	0.0001725   
 1               	0.0010393   	0.0010393   	0.0005197   	0.000343    	0.000343    	0.000343    
 1               	0.000343    	0.000343    	0.000343    	0.000343    	0.000343    	0.000343    
 1               	0.0010393   	0.0010393   	0.0005197   	0.000343    	0.000343    	0.000343    
 1               	0.0001905   	0.0001905   	0.0001905   	0.0001905   	0.0001905   	0.0001905   
 1               	0.0011477   	0.0011477   	0.0005739   	0.0003788   	0.0003788   	0.0003788   
 1               	0.0003788   	0.0003788   	0.0003788   	0.0003788   	0.0003788   	0.0003788   
 1               	0.0011477   	0.0011477   	0.0005739   	0.0003788   	0.0003788   	0.0003788   
;
 2               	0.0003167   	0.0003167   	0.0003167   	0.0003167   	0.0003167   	0.0003167   
 2               	0.0019079   	0.0019079   	0.000954    	0.0006296   	0.0006296   	0.0006296   
 2               	0.0006296   	0.0006296   	0.0006296   	0.0006296   	0.0006296   	0.0006296   
 2               	0.0019079   	0.0019079   	0.000954    	0.0006296   	0.0006296   	0.0006296   
 2               	0.0003158   	0.0003158   	0.0003158   	0.0003158   	0.0003158   	0.0003158   
 2               	0.0019025   	0.0019025   	0.0009512   	0.0006278   	0.0006278   	0.0006278   
 2               	0.0006278   	0.0006278   	0.0006278   	0.0006278   	0.0006278   	0.0006278   
 2               	0.0019025   	0.0019025   	0.0009512   	0.0006278   	0.0006278   	0.0006278   
 2               	0.0003168   	0.0003168   	0.0003168   	0.0003168   	0.0003168   	0.0003168   
 2               	0.0019082   	0.0019082   	0.0009541   	0.0006297   	0.0006297   	0.0006297   
 2               	0.0006297   	0.0006297   	0.0006297   	0.0006297   	0.0006297   	0.0006297   
 2               	0.0019082   	0.0019082   	0.0009541   	0.0006297   	0.0006297   	0.0006297   
 2               	0.0003169   	0.0003169   	0.0003169   	0.0003169   	0.0003169   	0.0003169   
 2               	0.001909    	0.001909    	0.0009545   	0.00063     	0.00063     	0.00063     
 2               	0.00063     	0.00063     	0.00063     	0.00063     	0.00063     	0.00063     
 2               	0.001909    	0.001909    	0.0009545   	0.00063     	0.00063     	0.00063     
 2               	0.000317    	0.000317    	0.000317    	0.000317    	0.000317    	0.000317    
 2               	0.0019097   	0.0019097   	0.0009548   	0.0006302   	0.0006302   	0.0006302   
 2               	0.0006302   	0.0006302   	0.0006302   	0.0006302   	0.0006302   	0.0006302   
 2               	0.0019097   	0.0019097   	0.0009548   	0.0006302   	0.0006302   	0.0006302   
 2               	0.0003162   	0.0003162   	0.0003162   	0.0003162   	0.0003162   	0.0003162   
 2               	0.0019049   	0.0019049   	0.0009525   	0.0006286   	0.0006286   	0.0006286   
 2               	0.0006286   	0.0006286   	0.0006286   	0.0006286   	0.0006286   	0.0006286   
 2               	0.0019049   	0.0019049   	0.0009525   	0.0006286   	0.0006286   	0.0006286   
 2               	0.0003176   	0.0003176   	0.0003176   	0.0003176   	0.0003176   	0.0003176   
 2               	0.0019132   	0.0019132   	0.0009566   	0.0006314   	0.0006314   	0.0006314   
 2               	0.0006314   	0.0006314   	0.0006314   	0.0006314   	0.0006314   	0.0006314   
 2               	0.0019132   	0.0019132   	0.0009566   	0.0006314   	0.0006314   	0.0006314   
 2               	0.0003461   	0.0003461   	0.0003461   	0.0003461   	0.0003461   	0.0003461   
 2               	0.0020847   	0.0020847   	0.0010423   	0.0006879   	0.0006879   	0.0006879   
 2               	0.0006879   	0.0006879   	0.0006879   	0.0006879   	0.0006879   	0.0006879   
 2               	0.0020847   	0.0020847   	0.0010423   	0.0006879   	0.0006879   	0.0006879   
 2               	0.0003462   	0.0003462   	0.0003462   	0.0003462   	0.0003462   	0.0003462   
 2               	0.0020857   	0.0020857   	0.0010428   	0.0006883   	0.0006883   	0.0006883   
 2               	0.0006883   	0.0006883   	0.0006883   	0.0006883   	0.0006883   	0.0006883   
 2               	0.0020857   	0.0020857   	0.0010428   	0.0006883   	0.0006883   	0.0006883   
 2               	0.0003449   	0.0003449   	0.0003449   	0.0003449   	0.0003449   	0.0003449   
 2               	0.002078    	0.002078    	0.001039    	0.0006857   	0.0006857   	0.0006857   
 2               	0.0006857   	0.0006857   	0.0006857   	0.0006857   	0.0006857   	0.0006857   
 2               	0.002078    	0.002078    	0.001039    	0.0006857   	0.0006857   	0.0006857   
 2               	0.0003456   	0.0003456   	0.0003456   	0.0003456   	0.0003456   	0.0003456   
 2               	0.0020821   	0.0020821   	0.0010411   	0.0006871   	0.0006871   	0.0006871   
 2               	0.0006871   	0.0006871   	0.0006871   	0.0006871   	0.0006871   	0.0006871   
 2               	0.0020821   	0.0020821   	0.0010411   	0.0006871   	0.0006871   	0.0006871   
 2               	0.0003462   	0.0003462   	0.0003462   	0.0003462   	0.0003462   	0.0003462   
 2               	0.0020854   	0.0020854   	0.0010427   	0.0006882   	0.0006882   	0.0006882   
 2               	0.0006882   	0.0006882   	0.0006882   	0.0006882   	0.0006882   	0.0006882   
 2               	0.0020854   	0.0020854   	0.0010427   	0.0006882   	0.0006882   	0.0006882   
 2               	0.0003455   	0.0003455   	0.0003455   	0.0003455   	0.0003455   	0.0003455   
 2               	0.0020813   	0.0020813   	0.0010407   	0.0006868   	0.0006868   	0.0006868   
 2               	0.0006868   	0.0006868   	0.0006868   	0.0006868   	0.0006868   	0.0006868   
 2               	0.0020813   	0.0020813   	0.0010407   	0.0006868   	0.0006868   	0.0006868   
 2               	0.0003451   	0.0003451   	0.0003451   	0.0003451   	0.0003451   	0.0003451   
 2               	0.0020791   	0.0020791   	0.0010395   	0.0006861   	0.0006861   	0.0006861   
 2               	0.0006861   	0.0006861   	0.0006861   	0.0006861   	0.0006861   	0.0006861   
 2               	0.0020791   	0.0020791   	0.0010395   	0.0006861   	0.0006861   	0.0006861   
 2               	0.0003801   	0.0003801   	0.0003801   	0.0003801   	0.0003801   	0.0003801   
 2               	0.0022899   	0.0022899   	0.001145    	0.0007557   	0.0007557   	0.0007557   
 2               	0.0007557   	0.0007557   	0.0007557   	0.0007557   	0.0007557   	0.0007557   
 2               	0.0022899   	0.0022899   	0.001145    	0.0007557   	0.0007557   	0.0007557   
;
 3               	0.0004739   	0.0004739   	0.0004739   	0.0004739   	0.0004739   	0.0004739   
 3               	0.0028548   	0.0028548   	0.0014274   	0.0009421   	0.0009421   	0.0009421   
 3               	0.0009421   	0.0009421   	0.0009421   	0.0009421   	0.0009421   	0.0009421   
 3               	0.0028548   	0.0028548   	0.0014274   	0.0009421   	0.0009421   	0.0009421   
 3               	0.0004752   	0.0004752   	0.0004752   	0.0004752   	0.0004752   	0.0004752   
 3               	0.0028629   	0.0028629   	0.0014314   	0.0009447   	0.0009447   	0.0009447   
 3               	0.0009447   	0.0009447   	0.0009447   	0.0009447   	0.0009447   	0.0009447   
 3               	0.0028629   	0.0028629   	0.0014314   	0.0009447   	0.0009447   	0.0009447   
 3               	0.0004748   	0.0004748   	0.0004748   	0.0004748   	0.0004748   	0.0004748   
 3               	0.0028603   	0.0028603   	0.0014302   	0.0009439   	0.0009439   	0.0009439   
 3               	0.0009439   	0.0009439   	0.0009439   	0.0009439   	0.0009439   	0.0009439   
 3               	0.0028603   	0.0028603   	0.0014302   	0.0009439   	0.0009439   	0.0009439   
 3               	0.0004746   	0.0004746   	0.0004746   	0.0004746   	0.0004746   	0.0004746   
 3               	0.0028588   	0.0028588   	0.0014294   	0.0009434   	0.0009434   	0.0009434   
 3               	0.0009434   	0.0009434   	0.0009434   	0.0009434   	0.0009434   	0.0009434   
 3               	0.0028588   	0.0028588   	0.0014294   	0.0009434   	0.0009434   	0.0009434   
 3               	0.0004752   	0.0004752   	0.0004752   	0.0004752   	0.0004752   	0.0004752   
 3               	0.0028627   	0.0028627   	0.0014314   	0.0009447   	0.0009447   	0.0009447   
 3               	0.0009447   	0.0009447   	0.0009447   	0.0009447   	0.0009447   	0.0009447   
 3               	0.0028627   	0.0028627   	0.0014314   	0.0009447   	0.0009447   	0.0009447   
 3               	0.0004744   	0.0004744   	0.0004744   	0.0004744   	0.0004744   	0.0004744   
 3               	0.0028579   	0.0028579   	0.001429    	0.0009431   	0.0009431   	0.0009431   
 3               	0.0009431   	0.0009431   	0.0009431   	0.0009431   	0.0009431   	0.0009431   
 3               	0.0028579   	0.0028579   	0.001429    	0.0009431   	0.0009431   	0.0009431   
 3               	0.0004747   	0.0004747   	0.0004747   	0.0004747   	0.0004747   	0.0004747   
 3               	0.0028594   	0.0028594   	0.0014297   	0.0009436   	0.0009436   	0.0009436   
 3               	0.0009436   	0.0009436   	0.0009436   	0.0009436   	0.0009436   	0.0009436   
 3               	0.0028594   	0.0028594   	0.0014297   	0.0009436   	0.0009436   	0.0009436   
 3               	0.0005177   	0.0005177   	0.0005177   	0.0005177   	0.0005177   	0.0005177   
 3               	0.0031186   	0.0031186   	0.0015593   	0.0010291   	0.0010291   	0.0010291   
 3               	0.0010291   	0.0010291   	0.0010291   	0.0010291   	0.0010291   	0.0010291   
 3               	0.0031186   	0.0031186   	0.0015593   	0.0010291   	0.0010291   	0.0010291   
 3               	0.0005187   	0.0005187   	0.0005187   	0.0005187   	0.0005187   	0.0005187   
 3               	0.0031246   	0.0031246   	0.0015623   	0.0010311   	0.0010311   	0.0010311   
 3               	0.0010311   	0.0010311   	0.0010311   	0.0010311   	0.0010311   	0.0010311   
 3               	0.0031246   	0.0031246   	0.0015623   	0.0010311   	0.0010311   	0.0010311   
 3               	0.000519    	0.000519    	0.000519    	0.000519    	0.000519    	0.000519    
 3               	0.0031265   	0.0031265   	0.0015632   	0.0010317   	0.0010317   	0.0010317   
 3               	0.0010317   	0.0010317   	0.0010317   	0.0010317   	0.0010317   	0.0010317   
 3               	0.0031265   	0.0031265   	0.0015632   	0.0010317   	0.0010317   	0.0010317   
 3               	0.0005181   	0.0005181   	0.0005181   	0.0005181   	0.0005181   	0.0005181   
 3               	0.0031212   	0.0031212   	0.0015606   	0.00103     	0.00103     	0.00103     
 3               	0.00103     	0.00103     	0.00103     	0.00103     	0.00103     	0.00103     
 3               	0.0031212   	0.0031212   	0.0015606   	0.00103     	0.00103     	0.00103     
 3               	0.0005183   	0.0005183   	0.0005183   	0.0005183   	0.0005183   	0.0005183   
 3               	0.0031223   	0.0031223   	0.0015612   	0.0010304   	0.0010304   	0.0010304   
 3               	0.0010304   	0.0010304   	0.0010304   	0.0010304   	0.0010304   	0.0010304   
 3               	0.0031223   	0.0031223   	0.0015612   	0.0010304   	0.0010304   	0.0010304   
 3               	0.0005189   	0.0005189   	0.0005189   	0.0005189   	0.0005189   	0.0005189   
 3               	0.0031257   	0.0031257   	0.0015629   	0.0010315   	0.0010315   	0.0010315   
 3               	0.0010315   	0.0010315   	0.0010315   	0.0010315   	0.0010315   	0.0010315   
 3               	0.0031257   	0.0031257   	0.0015629   	0.0010315   	0.0010315   	0.0010315   
 3               	0.0005188   	0.0005188   	0.0005188   	0.0005188   	0.0005188   	0.0005188   
 3               	0.0031252   	0.0031252   	0.0015626   	0.0010313   	0.0010313   	0.0010313   
 3               	0.0010313   	0.0010313   	0.0010313   	0.0010313   	0.0010313   	0.0010313   
 3               	0.0031252   	0.0031252   	0.0015626   	0.0010313   	0.0010313   	0.0010313   
 3               	0.0005725   	0.0005725   	0.0005725   	0.0005725   	0.0005725   	0.0005725   
 3               	0.0034489   	0.0034489   	0.0017244   	0.0011381   	0.0011381   	0.0011381   
 3               	0.0011381   	0.0011381   	0.0011381   	0.0011381   	0.0011381   	0.0011381   
 3               	0.0034489   	0.0034489   	0.0017244   	0.0011381   	0.0011381   	0.0011381   
;
 4               	7.93E-05    	7.93E-05    	7.93E-05    	7.93E-05    	7.93E-05    	7.93E-05    
 4               	0.0004777   	0.0004777   	0.0002388   	0.0001576   	0.0001576   	0.0001576   
 4               	0.0001576   	0.0001576   	0.0001576   	0.0001576   	0.0001576   	0.0001576   
 4               	0.0004777   	0.0004777   	0.0002388   	0.0001576   	0.0001576   	0.0001576   
 4               	7.93E-05    	7.93E-05    	7.93E-05    	7.93E-05    	7.93E-05    	7.93E-05    
 4               	0.0004775   	0.0004775   	0.0002388   	0.0001576   	0.0001576   	0.0001576   
 4               	0.0001576   	0.0001576   	0.0001576   	0.0001576   	0.0001576   	0.0001576   
 4               	0.0004775   	0.0004775   	0.0002388   	0.0001576   	0.0001576   	0.0001576   
 4               	7.9E-05     	7.9E-05     	7.9E-05     	7.9E-05     	7.9E-05     	7.9E-05     
 4               	0.0004758   	0.0004758   	0.0002379   	0.000157    	0.000157    	0.000157    
 4               	0.000157    	0.000157    	0.000157    	0.000157    	0.000157    	0.000157    
 4               	0.0004758   	0.0004758   	0.0002379   	0.000157    	0.000157    	0.000157    
 4               	7.86E-05    	7.86E-05    	7.86E-05    	7.86E-05    	7.86E-05    	7.86E-05    
 4               	0.0004732   	0.0004732   	0.0002366   	0.0001562   	0.0001562   	0.0001562   
 4               	0.0001562   	0.0001562   	0.0001562   	0.0001562   	0.0001562   	0.0001562   
 4               	0.0004732   	0.0004732   	0.0002366   	0.0001562   	0.0001562   	0.0001562   
 4               	7.87E-05    	7.87E-05    	7.87E-05    	7.87E-05    	7.87E-05    	7.87E-05    
 4               	0.0004743   	0.0004743   	0.0002371   	0.0001565   	0.0001565   	0.0001565   
 4               	0.0001565   	0.0001565   	0.0001565   	0.0001565   	0.0001565   	0.0001565   
 4               	0.0004743   	0.0004743   	0.0002371   	0.0001565   	0.0001565   	0.0001565   
 4               	7.95E-05    	7.95E-05    	7.95E-05    	7.95E-05    	7.95E-05    	7.95E-05    
 4               	0.0004788   	0.0004788   	0.0002394   	0.000158    	0.000158    	0.000158    
 4               	0.000158    	0.000158    	0.000158    	0.000158    	0.000158    	0.000158    
 4               	0.0004788   	0.0004788   	0.0002394   	0.000158    	0.000158    	0.000158    
 4               	7.9E-05     	7.9E-05     	7.9E-05     	7.9E-05     	7.9E-05     	7.9E-05     
 4               	0.0004761   	0.0004761   	0.0002381   	0.0001571   	0.0001571   	0.0001571   
 4               	0.0001571   	0.0001571   	0.0001571   	0.0001571   	0.0001571   	0.0001571   
 4               	0.0004761   	0.0004761   	0.0002381   	0.0001571   	0.0001571   	0.0001571   
 4               	8.65E-05    	8.65E-05    	8.65E-05    	8.65E-05    	8.65E-05    	8.65E-05    
 4               	0.0005212   	0.0005212   	0.0002606   	0.000172    	0.000172    	0.000172    
 4               	0.000172    	0.000172    	0.000172    	0.000172    	0.000172    	0.000172    
 4               	0.0005212   	0.0005212   	0.0002606   	0.000172    	0.000172    	0.000172    
 4               	8.66E-05    	8.66E-05    	8.66E-05    	8.66E-05    	8.66E-05    	8.66E-05    
 4               	0.0005214   	0.0005214   	0.0002607   	0.0001721   	0.0001721   	0.0001721   
 4               	0.0001721   	0.0001721   	0.0001721   	0.0001721   	0.0001721   	0.0001721   
 4               	0.0005214   	0.0005214   	0.0002607   	0.0001721   	0.0001721   	0.0001721   
 4               	8.7E-05     	8.7E-05     	8.7E-05     	8.7E-05     	8.7E-05     	8.7E-05     
 4               	0.0005242   	0.0005242   	0.0002621   	0.000173    	0.000173    	0.000173    
 4               	0.000173    	0.000173    	0.000173    	0.000173    	0.000173    	0.000173    
 4               	0.0005242   	0.0005242   	0.0002621   	0.000173    	0.000173    	0.000173    
 4               	8.62E-05    	8.62E-05    	8.62E-05    	8.62E-05    	8.62E-05    	8.62E-05    
 4               	0.0005194   	0.0005194   	0.0002597   	0.0001714   	0.0001714   	0.0001714   
 4               	0.0001714   	0.0001714   	0.0001714   	0.0001714   	0.0001714   	0.0001714   
 4               	0.0005194   	0.0005194   	0.0002597   	0.0001714   	0.0001714   	0.0001714   
 4               	8.63E-05    	8.63E-05    	8.63E-05    	8.63E-05    	8.63E-05    	8.63E-05    
 4               	0.0005198   	0.0005198   	0.0002599   	0.0001715   	0.0001715   	0.0001715   
 4               	0.0001715   	0.0001715   	0.0001715   	0.0001715   	0.0001715   	0.0001715   
 4               	0.0005198   	0.0005198   	0.0002599   	0.0001715   	0.0001715   	0.0001715   
 4               	8.69E-05    	8.69E-05    	8.69E-05    	8.69E-05    	8.69E-05    	8.69E-05    
 4               	0.0005237   	0.0005237   	0.0002619   	0.0001728   	0.0001728   	0.0001728   
 4               	0.0001728   	0.0001728   	0.0001728   	0.0001728   	0.0001728   	0.0001728   
 4               	0.0005237   	0.0005237   	0.0002619   	0.0001728   	0.0001728   	0.0001728   
 4               	8.65E-05    	8.65E-05    	8.65E-05    	8.65E-05    	8.65E-05    	8.65E-05    
 4               	0.0005214   	0.0005214   	0.0002607   	0.0001721   	0.0001721   	0.0001721   
 4               	0.0001721   	0.0001721   	0.0001721   	0.0001721   	0.0001721   	0.0001721   
 4               	0.0005214   	0.0005214   	0.0002607   	0.0001721   	0.0001721   	0.0001721   
 4               	9.51E-05    	9.51E-05    	9.51E-05    	9.51E-05    	9.51E-05    	9.51E-05    
 4               	0.0005729   	0.0005729   	0.0002865   	0.0001891   	0.0001891   	0.0001891   
 4               	0.0001891   	0.0001891   	0.0001891   	0.0001891   	0.0001891   	0.0001891   
 4               	0.0005729   	0.0005729   	0.0002865   	0.0001891   	0.0001891   	0.0001891   
;
 5               	0.0001108   	0.0001108   	0.0001108   	0.0001108   	0.0001108   	0.0001108   
 5               	0.0006677   	0.0006677   	0.0003338   	0.0002203   	0.0002203   	0.0002203   
 5               	0.0002203   	0.0002203   	0.0002203   	0.0002203   	0.0002203   	0.0002203   
 5               	0.0006677   	0.0006677   	0.0003338   	0.0002203   	0.0002203   	0.0002203   
 5               	0.000111    	0.000111    	0.000111    	0.000111    	0.000111    	0.000111    
 5               	0.0006687   	0.0006687   	0.0003344   	0.0002207   	0.0002207   	0.0002207   
 5               	0.0002207   	0.0002207   	0.0002207   	0.0002207   	0.0002207   	0.0002207   
 5               	0.0006687   	0.0006687   	0.0003344   	0.0002207   	0.0002207   	0.0002207   
 5               	0.0001106   	0.0001106   	0.0001106   	0.0001106   	0.0001106   	0.0001106   
 5               	0.0006663   	0.0006663   	0.0003331   	0.0002199   	0.0002199   	0.0002199   
 5               	0.0002199   	0.0002199   	0.0002199   	0.0002199   	0.0002199   	0.0002199   
 5               	0.0006663   	0.0006663   	0.0003331   	0.0002199   	0.0002199   	0.0002199   
 5               	0.0001113   	0.0001113   	0.0001113   	0.0001113   	0.0001113   	0.0001113   
 5               	0.0006707   	0.0006707   	0.0003354   	0.0002213   	0.0002213   	0.0002213   
 5               	0.0002213   	0.0002213   	0.0002213   	0.0002213   	0.0002213   	0.0002213   
 5               	0.0006707   	0.0006707   	0.0003354   	0.0002213   	0.0002213   	0.0002213   
 5               	0.0001113   	0.0001113   	0.0001113   	0.0001113   	0.0001113   	0.0001113   
 5               	0.0006706   	0.0006706   	0.0003353   	0.0002213   	0.0002213   	0.0002213   
 5               	0.0002213   	0.0002213   	0.0002213   	0.0002213   	0.0002213   	0.0002213   
 5               	0.0006706   	0.0006706   	0.0003353   	0.0002213   	0.0002213   	0.0002213   
 5               	0.0001107   	0.0001107   	0.0001107   	0.0001107   	0.0001107   	0.0001107   